Circuit: * C:\Users\afry\Documents\Semesters\Spring 2019\Circuits\olin-circuits-sp19\Final_Project_CMOS_Adder\4bit-Adder-pulse.asc

Limiting rise time of source v§c to 0.0005
Limiting fall time of source v§c to 0.0005
Limiting rise time of source v§b to 0.001
Limiting fall time of source v§b to 0.001
WARNING: Specified period is not longer than the sum of Trise, Tfall, and Ton for v§a.  Increasing period to 0.01
Limiting rise time of source v§a to 2.08167e-018
Limiting fall time of source v§a to 2.08167e-018
Direct Newton iteration failed to find .op point.  (Use ".option noopiter" to skip.)
Starting Gmin stepping
Gmin = 10
Gmin = 1.07374
Gmin = 0.115292
Gmin = 0.0123794
Gmin = 0.00132923
Gmin = 0.000142725
Gmin = 1.5325e-005
Gmin = 1.6455e-006
Gmin = 1.76685e-007
Gmin = 1.89714e-008
Gmin = 2.03704e-009
Gmin = 2.18725e-010
Gmin = 2.34854e-011
Gmin = 2.52173e-012
Gmin = 2.70769e-013
Gmin = 0
Gmin stepping succeeded in finding the operating point.

Ignoring empty pin current: Ix(u1:drain)
Ignoring empty pin current: Ix(u1:gate)
Ignoring empty pin current: Ix(u1:source)
Ignoring empty pin current: Ix(u2:drain)
Ignoring empty pin current: Ix(u2:gate)
Ignoring empty pin current: Ix(u2:source)
Ignoring empty pin current: Ix(u3:drain)
Ignoring empty pin current: Ix(u3:gate)
Ignoring empty pin current: Ix(u3:source)
Ignoring empty pin current: Ix(u4:drain)
Ignoring empty pin current: Ix(u4:gate)
Ignoring empty pin current: Ix(u4:source)
Ignoring empty pin current: Ix(u5:drain)
Ignoring empty pin current: Ix(u5:gate)
Ignoring empty pin current: Ix(u5:source)
Ignoring empty pin current: Ix(u6:drain)
Ignoring empty pin current: Ix(u6:gate)
Ignoring empty pin current: Ix(u6:source)
Ignoring empty pin current: Ix(u7:gnd)
Ignoring empty pin current: Ix(u8:gnd)
Ignoring empty pin current: Ix(u11:vdd)
Ignoring empty pin current: Ix(u12:vdd)
Ignoring empty pin current: Ix(u13:vdd)
Ignoring empty pin current: Ix(x1:b1)
Ignoring empty pin current: Ix(x1:a1)
Ignoring empty pin current: Ix(x1:cin)
Ignoring empty pin current: Ix(x1:s)
Ignoring empty pin current: Ix(x1:cout)
Ignoring empty pin current: Ix(x2:b1)
Ignoring empty pin current: Ix(x2:a1)
Ignoring empty pin current: Ix(x2:cin)
Ignoring empty pin current: Ix(x2:s)
Ignoring empty pin current: Ix(x2:cout)
Ignoring empty pin current: Ix(x4:b1)
Ignoring empty pin current: Ix(x4:a1)
Ignoring empty pin current: Ix(x4:cin)
Ignoring empty pin current: Ix(x4:s)
Ignoring empty pin current: Ix(x4:cout)
Ignoring empty pin current: Ix(x3:b1)
Ignoring empty pin current: Ix(x3:a1)
Ignoring empty pin current: Ix(x3:cin)
Ignoring empty pin current: Ix(x3:s)
Ignoring empty pin current: Ix(x3:cout)
Ignoring empty pin current: Ix(x1:x5:v1)
Ignoring empty pin current: Ix(x1:x5:v2)
Ignoring empty pin current: Ix(x1:x5:v3)
Ignoring empty pin current: Ix(x1:x1:ax)
Ignoring empty pin current: Ix(x1:x1:bx)
Ignoring empty pin current: Ix(x1:x1:outx)
Ignoring empty pin current: Ix(x1:x2:ax)
Ignoring empty pin current: Ix(x1:x2:bx)
Ignoring empty pin current: Ix(x1:x2:outx)
Ignoring empty pin current: Ix(x1:x4:a)
Ignoring empty pin current: Ix(x1:x4:b)
Ignoring empty pin current: Ix(x1:x4:c)
Ignoring empty pin current: Ix(x1:x3:a)
Ignoring empty pin current: Ix(x1:x3:b)
Ignoring empty pin current: Ix(x1:x3:c)
Ignoring empty pin current: Ix(x2:x5:v1)
Ignoring empty pin current: Ix(x2:x5:v2)
Ignoring empty pin current: Ix(x2:x5:v3)
Ignoring empty pin current: Ix(x2:x1:ax)
Ignoring empty pin current: Ix(x2:x1:bx)
Ignoring empty pin current: Ix(x2:x1:outx)
Ignoring empty pin current: Ix(x2:x2:ax)
Ignoring empty pin current: Ix(x2:x2:bx)
Ignoring empty pin current: Ix(x2:x2:outx)
Ignoring empty pin current: Ix(x2:x4:a)
Ignoring empty pin current: Ix(x2:x4:b)
Ignoring empty pin current: Ix(x2:x4:c)
Ignoring empty pin current: Ix(x2:x3:a)
Ignoring empty pin current: Ix(x2:x3:b)
Ignoring empty pin current: Ix(x2:x3:c)
Ignoring empty pin current: Ix(x3:x5:v1)
Ignoring empty pin current: Ix(x3:x5:v2)
Ignoring empty pin current: Ix(x3:x5:v3)
Ignoring empty pin current: Ix(x3:x1:ax)
Ignoring empty pin current: Ix(x3:x1:bx)
Ignoring empty pin current: Ix(x3:x1:outx)
Ignoring empty pin current: Ix(x3:x2:ax)
Ignoring empty pin current: Ix(x3:x2:bx)
Ignoring empty pin current: Ix(x3:x2:outx)
Ignoring empty pin current: Ix(x3:x4:a)
Ignoring empty pin current: Ix(x3:x4:b)
Ignoring empty pin current: Ix(x3:x4:c)
Ignoring empty pin current: Ix(x3:x3:a)
Ignoring empty pin current: Ix(x3:x3:b)
Ignoring empty pin current: Ix(x3:x3:c)
Ignoring empty pin current: Ix(x4:x5:v1)
Ignoring empty pin current: Ix(x4:x5:v2)
Ignoring empty pin current: Ix(x4:x5:v3)
Ignoring empty pin current: Ix(x4:x1:ax)
Ignoring empty pin current: Ix(x4:x1:bx)
Ignoring empty pin current: Ix(x4:x1:outx)
Ignoring empty pin current: Ix(x4:x2:ax)
Ignoring empty pin current: Ix(x4:x2:bx)
Ignoring empty pin current: Ix(x4:x2:outx)
Ignoring empty pin current: Ix(x4:x4:a)
Ignoring empty pin current: Ix(x4:x4:b)
Ignoring empty pin current: Ix(x4:x4:c)
Ignoring empty pin current: Ix(x4:x3:a)
Ignoring empty pin current: Ix(x4:x3:b)
Ignoring empty pin current: Ix(x4:x3:c)
Ignoring empty pin current: Ix(u1:drain)
Ignoring empty pin current: Ix(u1:gate)
Ignoring empty pin current: Ix(u1:source)
Ignoring empty pin current: Ix(u2:drain)
Ignoring empty pin current: Ix(u2:gate)
Ignoring empty pin current: Ix(u2:source)
Ignoring empty pin current: Ix(u3:drain)
Ignoring empty pin current: Ix(u3:gate)
Ignoring empty pin current: Ix(u3:source)
Ignoring empty pin current: Ix(u4:drain)
Ignoring empty pin current: Ix(u4:gate)
Ignoring empty pin current: Ix(u4:source)
Ignoring empty pin current: Ix(u5:drain)
Ignoring empty pin current: Ix(u5:gate)
Ignoring empty pin current: Ix(u5:source)
Ignoring empty pin current: Ix(u6:drain)
Ignoring empty pin current: Ix(u6:gate)
Ignoring empty pin current: Ix(u6:source)
Ignoring empty pin current: Ix(u7:gnd)
Ignoring empty pin current: Ix(u8:gnd)
Ignoring empty pin current: Ix(u11:vdd)
Ignoring empty pin current: Ix(u12:vdd)
Ignoring empty pin current: Ix(u13:vdd)
Ignoring empty pin current: Ix(x1:b1)
Ignoring empty pin current: Ix(x1:a1)
Ignoring empty pin current: Ix(x1:cin)
Ignoring empty pin current: Ix(x1:s)
Ignoring empty pin current: Ix(x1:cout)
Ignoring empty pin current: Ix(x2:b1)
Ignoring empty pin current: Ix(x2:a1)
Ignoring empty pin current: Ix(x2:cin)
Ignoring empty pin current: Ix(x2:s)
Ignoring empty pin current: Ix(x2:cout)
Ignoring empty pin current: Ix(x4:b1)
Ignoring empty pin current: Ix(x4:a1)
Ignoring empty pin current: Ix(x4:cin)
Ignoring empty pin current: Ix(x4:s)
Ignoring empty pin current: Ix(x4:cout)
Ignoring empty pin current: Ix(x3:b1)
Ignoring empty pin current: Ix(x3:a1)
Ignoring empty pin current: Ix(x3:cin)
Ignoring empty pin current: Ix(x3:s)
Ignoring empty pin current: Ix(x3:cout)
Ignoring empty pin current: Ix(x1:x5:v1)
Ignoring empty pin current: Ix(x1:x5:v2)
Ignoring empty pin current: Ix(x1:x5:v3)
Ignoring empty pin current: Ix(x1:x1:ax)
Ignoring empty pin current: Ix(x1:x1:bx)
Ignoring empty pin current: Ix(x1:x1:outx)
Ignoring empty pin current: Ix(x1:x2:ax)
Ignoring empty pin current: Ix(x1:x2:bx)
Ignoring empty pin current: Ix(x1:x2:outx)
Ignoring empty pin current: Ix(x1:x4:a)
Ignoring empty pin current: Ix(x1:x4:b)
Ignoring empty pin current: Ix(x1:x4:c)
Ignoring empty pin current: Ix(x1:x3:a)
Ignoring empty pin current: Ix(x1:x3:b)
Ignoring empty pin current: Ix(x1:x3:c)
Ignoring empty pin current: Ix(x2:x5:v1)
Ignoring empty pin current: Ix(x2:x5:v2)
Ignoring empty pin current: Ix(x2:x5:v3)
Ignoring empty pin current: Ix(x2:x1:ax)
Ignoring empty pin current: Ix(x2:x1:bx)
Ignoring empty pin current: Ix(x2:x1:outx)
Ignoring empty pin current: Ix(x2:x2:ax)
Ignoring empty pin current: Ix(x2:x2:bx)
Ignoring empty pin current: Ix(x2:x2:outx)
Ignoring empty pin current: Ix(x2:x4:a)
Ignoring empty pin current: Ix(x2:x4:b)
Ignoring empty pin current: Ix(x2:x4:c)
Ignoring empty pin current: Ix(x2:x3:a)
Ignoring empty pin current: Ix(x2:x3:b)
Ignoring empty pin current: Ix(x2:x3:c)
Ignoring empty pin current: Ix(x3:x5:v1)
Ignoring empty pin current: Ix(x3:x5:v2)
Ignoring empty pin current: Ix(x3:x5:v3)
Ignoring empty pin current: Ix(x3:x1:ax)
Ignoring empty pin current: Ix(x3:x1:bx)
Ignoring empty pin current: Ix(x3:x1:outx)
Ignoring empty pin current: Ix(x3:x2:ax)
Ignoring empty pin current: Ix(x3:x2:bx)
Ignoring empty pin current: Ix(x3:x2:outx)
Ignoring empty pin current: Ix(x3:x4:a)
Ignoring empty pin current: Ix(x3:x4:b)
Ignoring empty pin current: Ix(x3:x4:c)
Ignoring empty pin current: Ix(x3:x3:a)
Ignoring empty pin current: Ix(x3:x3:b)
Ignoring empty pin current: Ix(x3:x3:c)
Ignoring empty pin current: Ix(x4:x5:v1)
Ignoring empty pin current: Ix(x4:x5:v2)
Ignoring empty pin current: Ix(x4:x5:v3)
Ignoring empty pin current: Ix(x4:x1:ax)
Ignoring empty pin current: Ix(x4:x1:bx)
Ignoring empty pin current: Ix(x4:x1:outx)
Ignoring empty pin current: Ix(x4:x2:ax)
Ignoring empty pin current: Ix(x4:x2:bx)
Ignoring empty pin current: Ix(x4:x2:outx)
Ignoring empty pin current: Ix(x4:x4:a)
Ignoring empty pin current: Ix(x4:x4:b)
Ignoring empty pin current: Ix(x4:x4:c)
Ignoring empty pin current: Ix(x4:x3:a)
Ignoring empty pin current: Ix(x4:x3:b)
Ignoring empty pin current: Ix(x4:x3:c)
Heightened Def Con from 0.01 +++++++++++++++++++++++++++to 0.01
Heightened Def Con from 0.03 +++++++++++++++++++++++++++to 0.03

Date: Wed May 08 09:45:53 2019
Total elapsed time: 3.306 seconds.

tnom = 27
temp = 27
method = modified trap
totiter = 17936
traniter = 17478
tranpoints = 3473
accept = 2467
rejected = 1062
matrix size = 206
fillins = 14
solver = Normal
Thread vector: 83.4/51.9[8] 59.0/12.7[8] 14.3/9.3[8] 1.1/25.0[1]  2592/500
Matrix Compiler1: 14.81 KB object code size  21.3/3.4/[2.0]
Matrix Compiler2: 21.88 KB object code size  15.2/6.3/[1.4]

