Circuit: * C:\Users\afry\Documents\Semesters\Spring 2019\Circuits\olin-circuits-sp19\Final_Project_CMOS_Adder\4bit-Adder.asc

Direct Newton iteration failed to find .op point.  (Use ".option noopiter" to skip.)
Starting Gmin stepping
Gmin = 10
Gmin = 1.07374
Gmin = 0.115292
Gmin = 0.0123794
Gmin = 0.00132923
Gmin = 0.000142725
Gmin = 1.5325e-005
Gmin = 1.6455e-006
Gmin = 1.76685e-007
Gmin = 1.89714e-008
Gmin = 2.03704e-009
Gmin = 2.18725e-010
Gmin = 2.34854e-011
Gmin = 2.52173e-012
Gmin = 2.70769e-013
Gmin = 0
Gmin stepping succeeded in finding the operating point.

Ignoring empty pin current: Ix(u1:drain)
Ignoring empty pin current: Ix(u1:gate)
Ignoring empty pin current: Ix(u1:source)
Ignoring empty pin current: Ix(u2:drain)
Ignoring empty pin current: Ix(u2:gate)
Ignoring empty pin current: Ix(u2:source)
Ignoring empty pin current: Ix(u3:vdd)
Ignoring empty pin current: Ix(u4:drain)
Ignoring empty pin current: Ix(u4:gate)
Ignoring empty pin current: Ix(u4:source)
Ignoring empty pin current: Ix(u5:drain)
Ignoring empty pin current: Ix(u5:gate)
Ignoring empty pin current: Ix(u5:source)
Ignoring empty pin current: Ix(u6:drain)
Ignoring empty pin current: Ix(u6:gate)
Ignoring empty pin current: Ix(u6:source)
Ignoring empty pin current: Ix(u7:drain)
Ignoring empty pin current: Ix(u7:gate)
Ignoring empty pin current: Ix(u7:source)
Ignoring empty pin current: Ix(u8:gnd)
Ignoring empty pin current: Ix(u11:vdd)
Ignoring empty pin current: Ix(u12:vdd)
Ignoring empty pin current: Ix(u13:vdd)
Ignoring empty pin current: Ix(x1:b1)
Ignoring empty pin current: Ix(x1:a1)
Ignoring empty pin current: Ix(x1:cin)
Ignoring empty pin current: Ix(x1:s)
Ignoring empty pin current: Ix(x1:cout)
Ignoring empty pin current: Ix(x2:b1)
Ignoring empty pin current: Ix(x2:a1)
Ignoring empty pin current: Ix(x2:cin)
Ignoring empty pin current: Ix(x2:s)
Ignoring empty pin current: Ix(x2:cout)
Ignoring empty pin current: Ix(x3:b1)
Ignoring empty pin current: Ix(x3:a1)
Ignoring empty pin current: Ix(x3:cin)
Ignoring empty pin current: Ix(x3:s)
Ignoring empty pin current: Ix(x3:cout)
Ignoring empty pin current: Ix(x4:b1)
Ignoring empty pin current: Ix(x4:a1)
Ignoring empty pin current: Ix(x4:cin)
Ignoring empty pin current: Ix(x4:s)
Ignoring empty pin current: Ix(x4:cout)
Ignoring empty pin current: Ix(x1:x1:outx)
Ignoring empty pin current: Ix(x1:x1:ax)
Ignoring empty pin current: Ix(x1:x1:bx)
Ignoring empty pin current: Ix(x1:x2:outx)
Ignoring empty pin current: Ix(x1:x2:ax)
Ignoring empty pin current: Ix(x1:x2:bx)
Ignoring empty pin current: Ix(x1:x3:a)
Ignoring empty pin current: Ix(x1:x3:b)
Ignoring empty pin current: Ix(x1:x3:c)
Ignoring empty pin current: Ix(x1:x4:a)
Ignoring empty pin current: Ix(x1:x4:b)
Ignoring empty pin current: Ix(x1:x4:c)
Ignoring empty pin current: Ix(x1:x5:v1)
Ignoring empty pin current: Ix(x1:x5:v2)
Ignoring empty pin current: Ix(x1:x5:v3)
Ignoring empty pin current: Ix(x2:x1:outx)
Ignoring empty pin current: Ix(x2:x1:ax)
Ignoring empty pin current: Ix(x2:x1:bx)
Ignoring empty pin current: Ix(x2:x2:outx)
Ignoring empty pin current: Ix(x2:x2:ax)
Ignoring empty pin current: Ix(x2:x2:bx)
Ignoring empty pin current: Ix(x2:x3:a)
Ignoring empty pin current: Ix(x2:x3:b)
Ignoring empty pin current: Ix(x2:x3:c)
Ignoring empty pin current: Ix(x2:x4:a)
Ignoring empty pin current: Ix(x2:x4:b)
Ignoring empty pin current: Ix(x2:x4:c)
Ignoring empty pin current: Ix(x2:x5:v1)
Ignoring empty pin current: Ix(x2:x5:v2)
Ignoring empty pin current: Ix(x2:x5:v3)
Ignoring empty pin current: Ix(x3:x1:outx)
Ignoring empty pin current: Ix(x3:x1:ax)
Ignoring empty pin current: Ix(x3:x1:bx)
Ignoring empty pin current: Ix(x3:x2:outx)
Ignoring empty pin current: Ix(x3:x2:ax)
Ignoring empty pin current: Ix(x3:x2:bx)
Ignoring empty pin current: Ix(x3:x3:a)
Ignoring empty pin current: Ix(x3:x3:b)
Ignoring empty pin current: Ix(x3:x3:c)
Ignoring empty pin current: Ix(x3:x4:a)
Ignoring empty pin current: Ix(x3:x4:b)
Ignoring empty pin current: Ix(x3:x4:c)
Ignoring empty pin current: Ix(x3:x5:v1)
Ignoring empty pin current: Ix(x3:x5:v2)
Ignoring empty pin current: Ix(x3:x5:v3)
Ignoring empty pin current: Ix(x4:x1:outx)
Ignoring empty pin current: Ix(x4:x1:ax)
Ignoring empty pin current: Ix(x4:x1:bx)
Ignoring empty pin current: Ix(x4:x2:outx)
Ignoring empty pin current: Ix(x4:x2:ax)
Ignoring empty pin current: Ix(x4:x2:bx)
Ignoring empty pin current: Ix(x4:x3:a)
Ignoring empty pin current: Ix(x4:x3:b)
Ignoring empty pin current: Ix(x4:x3:c)
Ignoring empty pin current: Ix(x4:x4:a)
Ignoring empty pin current: Ix(x4:x4:b)
Ignoring empty pin current: Ix(x4:x4:c)
Ignoring empty pin current: Ix(x4:x5:v1)
Ignoring empty pin current: Ix(x4:x5:v2)
Ignoring empty pin current: Ix(x4:x5:v3)
Ignoring empty pin current: Ix(u1:drain)
Ignoring empty pin current: Ix(u1:gate)
Ignoring empty pin current: Ix(u1:source)
Ignoring empty pin current: Ix(u2:drain)
Ignoring empty pin current: Ix(u2:gate)
Ignoring empty pin current: Ix(u2:source)
Ignoring empty pin current: Ix(u3:vdd)
Ignoring empty pin current: Ix(u4:drain)
Ignoring empty pin current: Ix(u4:gate)
Ignoring empty pin current: Ix(u4:source)
Ignoring empty pin current: Ix(u5:drain)
Ignoring empty pin current: Ix(u5:gate)
Ignoring empty pin current: Ix(u5:source)
Ignoring empty pin current: Ix(u6:drain)
Ignoring empty pin current: Ix(u6:gate)
Ignoring empty pin current: Ix(u6:source)
Ignoring empty pin current: Ix(u7:drain)
Ignoring empty pin current: Ix(u7:gate)
Ignoring empty pin current: Ix(u7:source)
Ignoring empty pin current: Ix(u8:gnd)
Ignoring empty pin current: Ix(u11:vdd)
Ignoring empty pin current: Ix(u12:vdd)
Ignoring empty pin current: Ix(u13:vdd)
Ignoring empty pin current: Ix(x1:b1)
Ignoring empty pin current: Ix(x1:a1)
Ignoring empty pin current: Ix(x1:cin)
Ignoring empty pin current: Ix(x1:s)
Ignoring empty pin current: Ix(x1:cout)
Ignoring empty pin current: Ix(x2:b1)
Ignoring empty pin current: Ix(x2:a1)
Ignoring empty pin current: Ix(x2:cin)
Ignoring empty pin current: Ix(x2:s)
Ignoring empty pin current: Ix(x2:cout)
Ignoring empty pin current: Ix(x3:b1)
Ignoring empty pin current: Ix(x3:a1)
Ignoring empty pin current: Ix(x3:cin)
Ignoring empty pin current: Ix(x3:s)
Ignoring empty pin current: Ix(x3:cout)
Ignoring empty pin current: Ix(x4:b1)
Ignoring empty pin current: Ix(x4:a1)
Ignoring empty pin current: Ix(x4:cin)
Ignoring empty pin current: Ix(x4:s)
Ignoring empty pin current: Ix(x4:cout)
Ignoring empty pin current: Ix(x1:x1:outx)
Ignoring empty pin current: Ix(x1:x1:ax)
Ignoring empty pin current: Ix(x1:x1:bx)
Ignoring empty pin current: Ix(x1:x2:outx)
Ignoring empty pin current: Ix(x1:x2:ax)
Ignoring empty pin current: Ix(x1:x2:bx)
Ignoring empty pin current: Ix(x1:x3:a)
Ignoring empty pin current: Ix(x1:x3:b)
Ignoring empty pin current: Ix(x1:x3:c)
Ignoring empty pin current: Ix(x1:x4:a)
Ignoring empty pin current: Ix(x1:x4:b)
Ignoring empty pin current: Ix(x1:x4:c)
Ignoring empty pin current: Ix(x1:x5:v1)
Ignoring empty pin current: Ix(x1:x5:v2)
Ignoring empty pin current: Ix(x1:x5:v3)
Ignoring empty pin current: Ix(x2:x1:outx)
Ignoring empty pin current: Ix(x2:x1:ax)
Ignoring empty pin current: Ix(x2:x1:bx)
Ignoring empty pin current: Ix(x2:x2:outx)
Ignoring empty pin current: Ix(x2:x2:ax)
Ignoring empty pin current: Ix(x2:x2:bx)
Ignoring empty pin current: Ix(x2:x3:a)
Ignoring empty pin current: Ix(x2:x3:b)
Ignoring empty pin current: Ix(x2:x3:c)
Ignoring empty pin current: Ix(x2:x4:a)
Ignoring empty pin current: Ix(x2:x4:b)
Ignoring empty pin current: Ix(x2:x4:c)
Ignoring empty pin current: Ix(x2:x5:v1)
Ignoring empty pin current: Ix(x2:x5:v2)
Ignoring empty pin current: Ix(x2:x5:v3)
Ignoring empty pin current: Ix(x3:x1:outx)
Ignoring empty pin current: Ix(x3:x1:ax)
Ignoring empty pin current: Ix(x3:x1:bx)
Ignoring empty pin current: Ix(x3:x2:outx)
Ignoring empty pin current: Ix(x3:x2:ax)
Ignoring empty pin current: Ix(x3:x2:bx)
Ignoring empty pin current: Ix(x3:x3:a)
Ignoring empty pin current: Ix(x3:x3:b)
Ignoring empty pin current: Ix(x3:x3:c)
Ignoring empty pin current: Ix(x3:x4:a)
Ignoring empty pin current: Ix(x3:x4:b)
Ignoring empty pin current: Ix(x3:x4:c)
Ignoring empty pin current: Ix(x3:x5:v1)
Ignoring empty pin current: Ix(x3:x5:v2)
Ignoring empty pin current: Ix(x3:x5:v3)
Ignoring empty pin current: Ix(x4:x1:outx)
Ignoring empty pin current: Ix(x4:x1:ax)
Ignoring empty pin current: Ix(x4:x1:bx)
Ignoring empty pin current: Ix(x4:x2:outx)
Ignoring empty pin current: Ix(x4:x2:ax)
Ignoring empty pin current: Ix(x4:x2:bx)
Ignoring empty pin current: Ix(x4:x3:a)
Ignoring empty pin current: Ix(x4:x3:b)
Ignoring empty pin current: Ix(x4:x3:c)
Ignoring empty pin current: Ix(x4:x4:a)
Ignoring empty pin current: Ix(x4:x4:b)
Ignoring empty pin current: Ix(x4:x4:c)
Ignoring empty pin current: Ix(x4:x5:v1)
Ignoring empty pin current: Ix(x4:x5:v2)
Ignoring empty pin current: Ix(x4:x5:v3)

Date: Sat May 04 16:49:05 2019
Total elapsed time: 1.997 seconds.

tnom = 27
temp = 27
method = modified trap
totiter = 2597
traniter = 2082
tranpoints = 1042
accept = 1042
rejected = 0
matrix size = 230
fillins = 16
solver = Normal
Thread vector: 153.3/56.5[8] 20.0/11.2[8] 7.4/4.6[8] 1.1/2.3[1]  2592/500
Matrix Compiler1: 16.01 KB object code size  6.5/2.6/[1.1]
Matrix Compiler2: 23.41 KB object code size  6.7/8.2/[1.8]

