Circuit: * C:\Users\afry\Documents\Semesters\Spring 2019\Circuits\olin-circuits-sp19\Final_Project_CMOS_Adder\andgate-pulse.asc

Limiting rise time of source v§b to 0.002
Limiting fall time of source v§b to 0.002
Limiting rise time of source v§a to 0.002
Limiting fall time of source v§a to 0.002
Direct Newton iteration for .op point succeeded.

Date: Tue May 07 17:02:23 2019
Total elapsed time: 0.110 seconds.

tnom = 27
temp = 27
method = modified trap
totiter = 2837
traniter = 2820
tranpoints = 1192
accept = 1147
rejected = 45
matrix size = 27
fillins = 0
solver = Normal
Matrix Compiler1: 872 bytes object code size  0.3/0.2/[0.1]
Matrix Compiler2: off  [0.2]/0.3/0.4

