Circuit: * C:\Users\vscheyer\Documents\Classes_4th_Semester\Circuits\olin-circuits-sp19\Final_Project_CMOS_Adder\orgate.asc

WARNING: Node V1 is floating.
WARNING: Node V2 is floating.

Direct Newton iteration for .op point succeeded.

Date: Thu May 02 21:58:26 2019
Total elapsed time: 0.202 seconds.

tnom = 27
temp = 27
method = modified trap
totiter = 2091
traniter = 2082
tranpoints = 1042
accept = 1042
rejected = 0
matrix size = 15
fillins = 2
solver = Normal
Matrix Compiler1: 982 bytes object code size  0.8/0.4/[0.3]
Matrix Compiler2: off  [0.5]/0.6/0.5

