Circuit: * C:\Users\afry\Documents\Semesters\Spring 2019\Circuits\olin-circuits-sp19\Final_Project_CMOS_Adder\orgate-pulse.asc

Limiting rise time of source v2 to 0.002
Limiting fall time of source v2 to 0.002
Limiting rise time of source v1 to 0.002
Limiting fall time of source v1 to 0.002
Direct Newton iteration for .op point succeeded.

Date: Sun May 05 16:45:44 2019
Total elapsed time: 0.065 seconds.

tnom = 27
temp = 27
method = modified trap
totiter = 2443
traniter = 2434
tranpoints = 1119
accept = 1098
rejected = 21
matrix size = 21
fillins = 0
solver = Normal
Matrix Compiler1: 752 bytes object code size  0.2/0.1/[0.1]
Matrix Compiler2: off  [0.1]/0.2/0.2

