Circuit: * C:\Users\afry\Documents\Semesters\Spring 2019\Circuits\olin-circuits-sp19\Final_Project_CMOS_Adder\XOR.asc

Direct Newton iteration failed to find .op point.  (Use ".option noopiter" to skip.)
Starting Gmin stepping
Gmin = 10
Gmin = 1.07374
Gmin = 0.115292
Gmin = 0.0123794
Gmin = 0.00132923
Gmin = 0.000142725
Gmin = 1.5325e-005
Gmin = 1.6455e-006
Gmin = 1.76685e-007
Gmin = 1.89714e-008
Gmin = 2.03704e-009
Gmin = 2.18725e-010
Gmin = 2.34854e-011
Gmin = 2.52173e-012
vernier = 0.5
vernier = 0.666667
Gmin = 9.44188e-013
vernier = 0.888888
vernier = 1
Gmin = 1.33182e-013
Gmin = 0
Gmin stepping succeeded in finding the operating point.


Date: Wed May 01 15:11:11 2019
Total elapsed time: 0.091 seconds.

tnom = 27
temp = 27
method = modified trap
totiter = 2703
traniter = 2082
tranpoints = 1042
accept = 1042
rejected = 0
matrix size = 15
fillins = 0
solver = Normal
Matrix Compiler1: 900 bytes object code size  0.2/0.1/[0.1]
Matrix Compiler2: off  [0.2]/0.3/0.8

