Circuit: * C:\Users\afry\Documents\Semesters\Spring 2019\Circuits\olin-circuits-sp19\Final_Project_CMOS_Adder\XORasc.asc

Direct Newton iteration for .op point succeeded.

Date: Wed May 01 11:11:50 2019
Total elapsed time: 0.103 seconds.

tnom = 27
temp = 27
method = modified trap
totiter = 2097
traniter = 2082
tranpoints = 1042
accept = 1042
rejected = 0
matrix size = 21
fillins = 0
solver = Normal
Matrix Compiler1: 644 bytes object code size  0.2/0.1/[0.1]
Matrix Compiler2: 1.62 KB object code size  0.2/0.2/[0.1]

