Circuit: * C:\Users\afry\Documents\Semesters\Spring 2019\Circuits\olin-circuits-sp19\Final_Project_CMOS_Adder\1bit-Adder-test.asc

Direct Newton iteration for .op point succeeded.
Ignoring empty pin current: Ix(u1:drain)
Ignoring empty pin current: Ix(u1:gate)
Ignoring empty pin current: Ix(u1:source)
Ignoring empty pin current: Ix(u2:drain)
Ignoring empty pin current: Ix(u2:gate)
Ignoring empty pin current: Ix(u2:source)
Ignoring empty pin current: Ix(u3:vdd)
Ignoring empty pin current: Ix(u4:drain)
Ignoring empty pin current: Ix(u4:gate)
Ignoring empty pin current: Ix(u4:source)
Ignoring empty pin current: Ix(u5:drain)
Ignoring empty pin current: Ix(u5:gate)
Ignoring empty pin current: Ix(u5:source)
Ignoring empty pin current: Ix(u6:drain)
Ignoring empty pin current: Ix(u6:gate)
Ignoring empty pin current: Ix(u6:source)
Ignoring empty pin current: Ix(u7:drain)
Ignoring empty pin current: Ix(u7:gate)
Ignoring empty pin current: Ix(u7:source)
Ignoring empty pin current: Ix(u8:gnd)
Ignoring empty pin current: Ix(u11:vdd)
Ignoring empty pin current: Ix(u12:vdd)
Ignoring empty pin current: Ix(u13:vdd)
Ignoring empty pin current: Ix(x1:a1)
Ignoring empty pin current: Ix(x1:b1)
Ignoring empty pin current: Ix(x1:cin)
Ignoring empty pin current: Ix(x1:s)
Ignoring empty pin current: Ix(x1:cout)
Ignoring empty pin current: Ix(x1:x1:outx)
Ignoring empty pin current: Ix(x1:x1:ax)
Ignoring empty pin current: Ix(x1:x1:bx)
Ignoring empty pin current: Ix(x1:x2:outx)
Ignoring empty pin current: Ix(x1:x2:ax)
Ignoring empty pin current: Ix(x1:x2:bx)
Ignoring empty pin current: Ix(x1:x3:a)
Ignoring empty pin current: Ix(x1:x3:b)
Ignoring empty pin current: Ix(x1:x3:c)
Ignoring empty pin current: Ix(x1:x4:a)
Ignoring empty pin current: Ix(x1:x4:b)
Ignoring empty pin current: Ix(x1:x4:c)
Ignoring empty pin current: Ix(x1:x5:v1)
Ignoring empty pin current: Ix(x1:x5:v2)
Ignoring empty pin current: Ix(x1:x5:v3)
Ignoring empty pin current: Ix(u1:drain)
Ignoring empty pin current: Ix(u1:gate)
Ignoring empty pin current: Ix(u1:source)
Ignoring empty pin current: Ix(u2:drain)
Ignoring empty pin current: Ix(u2:gate)
Ignoring empty pin current: Ix(u2:source)
Ignoring empty pin current: Ix(u3:vdd)
Ignoring empty pin current: Ix(u4:drain)
Ignoring empty pin current: Ix(u4:gate)
Ignoring empty pin current: Ix(u4:source)
Ignoring empty pin current: Ix(u5:drain)
Ignoring empty pin current: Ix(u5:gate)
Ignoring empty pin current: Ix(u5:source)
Ignoring empty pin current: Ix(u6:drain)
Ignoring empty pin current: Ix(u6:gate)
Ignoring empty pin current: Ix(u6:source)
Ignoring empty pin current: Ix(u7:drain)
Ignoring empty pin current: Ix(u7:gate)
Ignoring empty pin current: Ix(u7:source)
Ignoring empty pin current: Ix(u8:gnd)
Ignoring empty pin current: Ix(u11:vdd)
Ignoring empty pin current: Ix(u12:vdd)
Ignoring empty pin current: Ix(u13:vdd)
Ignoring empty pin current: Ix(x1:a1)
Ignoring empty pin current: Ix(x1:b1)
Ignoring empty pin current: Ix(x1:cin)
Ignoring empty pin current: Ix(x1:s)
Ignoring empty pin current: Ix(x1:cout)
Ignoring empty pin current: Ix(x1:x1:outx)
Ignoring empty pin current: Ix(x1:x1:ax)
Ignoring empty pin current: Ix(x1:x1:bx)
Ignoring empty pin current: Ix(x1:x2:outx)
Ignoring empty pin current: Ix(x1:x2:ax)
Ignoring empty pin current: Ix(x1:x2:bx)
Ignoring empty pin current: Ix(x1:x3:a)
Ignoring empty pin current: Ix(x1:x3:b)
Ignoring empty pin current: Ix(x1:x3:c)
Ignoring empty pin current: Ix(x1:x4:a)
Ignoring empty pin current: Ix(x1:x4:b)
Ignoring empty pin current: Ix(x1:x4:c)
Ignoring empty pin current: Ix(x1:x5:v1)
Ignoring empty pin current: Ix(x1:x5:v2)
Ignoring empty pin current: Ix(x1:x5:v3)

Date: Sat May 04 16:29:25 2019
Total elapsed time: 0.398 seconds.

tnom = 27
temp = 27
method = modified trap
totiter = 2114
traniter = 2082
tranpoints = 1042
accept = 1042
rejected = 0
matrix size = 65
fillins = 0
solver = Normal
Thread vector: 18.6/9.9[3] 3.3/2.3[3] 1.8/1.1[3] 0.2/1.7[1]  2592/500
Matrix Compiler1: 3.55 KB object code size  0.8/0.4/[0.2]
Matrix Compiler2: 6.28 KB object code size  0.5/0.9/[0.3]

