Circuit: * C:\Users\afry\Documents\Semesters\Spring 2019\Circuits\olin-circuits-sp19\Final_Project_CMOS_Adder\1bit-Adder.asc

Direct Newton iteration for .op point succeeded.
Ignoring empty pin current: Ix(u1:drain)
Ignoring empty pin current: Ix(u1:gate)
Ignoring empty pin current: Ix(u1:source)
Ignoring empty pin current: Ix(u2:drain)
Ignoring empty pin current: Ix(u2:gate)
Ignoring empty pin current: Ix(u2:source)
Ignoring empty pin current: Ix(u3:vdd)
Ignoring empty pin current: Ix(u4:drain)
Ignoring empty pin current: Ix(u4:gate)
Ignoring empty pin current: Ix(u4:source)
Ignoring empty pin current: Ix(u5:drain)
Ignoring empty pin current: Ix(u5:gate)
Ignoring empty pin current: Ix(u5:source)
Ignoring empty pin current: Ix(u6:drain)
Ignoring empty pin current: Ix(u6:gate)
Ignoring empty pin current: Ix(u6:source)
Ignoring empty pin current: Ix(u7:drain)
Ignoring empty pin current: Ix(u7:gate)
Ignoring empty pin current: Ix(u7:source)
Ignoring empty pin current: Ix(u8:gnd)
Ignoring empty pin current: Ix(u11:vdd)
Ignoring empty pin current: Ix(u12:vdd)
Ignoring empty pin current: Ix(u13:vdd)
Ignoring empty pin current: Ix(x1:outx)
Ignoring empty pin current: Ix(x1:ax)
Ignoring empty pin current: Ix(x1:bx)
Ignoring empty pin current: Ix(x2:outx)
Ignoring empty pin current: Ix(x2:ax)
Ignoring empty pin current: Ix(x2:bx)
Ignoring empty pin current: Ix(x3:a)
Ignoring empty pin current: Ix(x3:b)
Ignoring empty pin current: Ix(x3:c)
Ignoring empty pin current: Ix(x4:a)
Ignoring empty pin current: Ix(x4:b)
Ignoring empty pin current: Ix(x4:c)
Ignoring empty pin current: Ix(x5:v1)
Ignoring empty pin current: Ix(x5:v2)
Ignoring empty pin current: Ix(x5:v3)
Ignoring empty pin current: Ix(u1:drain)
Ignoring empty pin current: Ix(u1:gate)
Ignoring empty pin current: Ix(u1:source)
Ignoring empty pin current: Ix(u2:drain)
Ignoring empty pin current: Ix(u2:gate)
Ignoring empty pin current: Ix(u2:source)
Ignoring empty pin current: Ix(u3:vdd)
Ignoring empty pin current: Ix(u4:drain)
Ignoring empty pin current: Ix(u4:gate)
Ignoring empty pin current: Ix(u4:source)
Ignoring empty pin current: Ix(u5:drain)
Ignoring empty pin current: Ix(u5:gate)
Ignoring empty pin current: Ix(u5:source)
Ignoring empty pin current: Ix(u6:drain)
Ignoring empty pin current: Ix(u6:gate)
Ignoring empty pin current: Ix(u6:source)
Ignoring empty pin current: Ix(u7:drain)
Ignoring empty pin current: Ix(u7:gate)
Ignoring empty pin current: Ix(u7:source)
Ignoring empty pin current: Ix(u8:gnd)
Ignoring empty pin current: Ix(u11:vdd)
Ignoring empty pin current: Ix(u12:vdd)
Ignoring empty pin current: Ix(u13:vdd)
Ignoring empty pin current: Ix(x1:outx)
Ignoring empty pin current: Ix(x1:ax)
Ignoring empty pin current: Ix(x1:bx)
Ignoring empty pin current: Ix(x2:outx)
Ignoring empty pin current: Ix(x2:ax)
Ignoring empty pin current: Ix(x2:bx)
Ignoring empty pin current: Ix(x3:a)
Ignoring empty pin current: Ix(x3:b)
Ignoring empty pin current: Ix(x3:c)
Ignoring empty pin current: Ix(x4:a)
Ignoring empty pin current: Ix(x4:b)
Ignoring empty pin current: Ix(x4:c)
Ignoring empty pin current: Ix(x5:v1)
Ignoring empty pin current: Ix(x5:v2)
Ignoring empty pin current: Ix(x5:v3)

Date: Sat May 04 11:20:22 2019
Total elapsed time: 0.367 seconds.

tnom = 27
temp = 27
method = modified trap
totiter = 2114
traniter = 2082
tranpoints = 1042
accept = 1042
rejected = 0
matrix size = 65
fillins = 0
solver = Normal
Thread vector: 26.7/13.0[3] 7.7/5.1[3] 2.2/1.4[2] 0.4/2.4[1]  2592/500
Matrix Compiler1: 3.55 KB object code size  0.8/1.0/[0.3]
Matrix Compiler2: 6.28 KB object code size  0.7/1.6/[0.5]

