Circuit: * C:\Users\afry\Documents\Semesters\Spring 2019\Circuits\olin-circuits-sp19\Final_Project_CMOS_Adder\1bit-Adder-pulse.asc

Limiting rise time of source v§cin to 0.0005
Limiting fall time of source v§cin to 0.0005
Limiting rise time of source v§b1 to 0.001
Limiting fall time of source v§b1 to 0.001
Limiting rise time of source v§a1 to 0.002
Limiting fall time of source v§a1 to 0.002
Direct Newton iteration for .op point succeeded.
Ignoring empty pin current: Ix(u1:drain)
Ignoring empty pin current: Ix(u1:gate)
Ignoring empty pin current: Ix(u1:source)
Ignoring empty pin current: Ix(u2:drain)
Ignoring empty pin current: Ix(u2:gate)
Ignoring empty pin current: Ix(u2:source)
Ignoring empty pin current: Ix(u3:drain)
Ignoring empty pin current: Ix(u3:gate)
Ignoring empty pin current: Ix(u3:source)
Ignoring empty pin current: Ix(u4:drain)
Ignoring empty pin current: Ix(u4:gate)
Ignoring empty pin current: Ix(u4:source)
Ignoring empty pin current: Ix(u5:drain)
Ignoring empty pin current: Ix(u5:gate)
Ignoring empty pin current: Ix(u5:source)
Ignoring empty pin current: Ix(u6:drain)
Ignoring empty pin current: Ix(u6:gate)
Ignoring empty pin current: Ix(u6:source)
Ignoring empty pin current: Ix(u7:gnd)
Ignoring empty pin current: Ix(u8:gnd)
Ignoring empty pin current: Ix(u11:vdd)
Ignoring empty pin current: Ix(u12:vdd)
Ignoring empty pin current: Ix(u13:vdd)
Ignoring empty pin current: Ix(x5:v1)
Ignoring empty pin current: Ix(x5:v2)
Ignoring empty pin current: Ix(x5:v3)
Ignoring empty pin current: Ix(x1:ax)
Ignoring empty pin current: Ix(x1:bx)
Ignoring empty pin current: Ix(x1:outx)
Ignoring empty pin current: Ix(x2:ax)
Ignoring empty pin current: Ix(x2:bx)
Ignoring empty pin current: Ix(x2:outx)
Ignoring empty pin current: Ix(x4:a)
Ignoring empty pin current: Ix(x4:b)
Ignoring empty pin current: Ix(x4:c)
Ignoring empty pin current: Ix(x3:a)
Ignoring empty pin current: Ix(x3:b)
Ignoring empty pin current: Ix(x3:c)
Ignoring empty pin current: Ix(u1:drain)
Ignoring empty pin current: Ix(u1:gate)
Ignoring empty pin current: Ix(u1:source)
Ignoring empty pin current: Ix(u2:drain)
Ignoring empty pin current: Ix(u2:gate)
Ignoring empty pin current: Ix(u2:source)
Ignoring empty pin current: Ix(u3:drain)
Ignoring empty pin current: Ix(u3:gate)
Ignoring empty pin current: Ix(u3:source)
Ignoring empty pin current: Ix(u4:drain)
Ignoring empty pin current: Ix(u4:gate)
Ignoring empty pin current: Ix(u4:source)
Ignoring empty pin current: Ix(u5:drain)
Ignoring empty pin current: Ix(u5:gate)
Ignoring empty pin current: Ix(u5:source)
Ignoring empty pin current: Ix(u6:drain)
Ignoring empty pin current: Ix(u6:gate)
Ignoring empty pin current: Ix(u6:source)
Ignoring empty pin current: Ix(u7:gnd)
Ignoring empty pin current: Ix(u8:gnd)
Ignoring empty pin current: Ix(u11:vdd)
Ignoring empty pin current: Ix(u12:vdd)
Ignoring empty pin current: Ix(u13:vdd)
Ignoring empty pin current: Ix(x5:v1)
Ignoring empty pin current: Ix(x5:v2)
Ignoring empty pin current: Ix(x5:v3)
Ignoring empty pin current: Ix(x1:ax)
Ignoring empty pin current: Ix(x1:bx)
Ignoring empty pin current: Ix(x1:outx)
Ignoring empty pin current: Ix(x2:ax)
Ignoring empty pin current: Ix(x2:bx)
Ignoring empty pin current: Ix(x2:outx)
Ignoring empty pin current: Ix(x4:a)
Ignoring empty pin current: Ix(x4:b)
Ignoring empty pin current: Ix(x4:c)
Ignoring empty pin current: Ix(x3:a)
Ignoring empty pin current: Ix(x3:b)
Ignoring empty pin current: Ix(x3:c)

Date: Tue May 07 17:18:19 2019
Total elapsed time: 0.245 seconds.

tnom = 27
temp = 27
method = modified trap
totiter = 8261
traniter = 8229
tranpoints = 2322
accept = 1948
rejected = 374
matrix size = 65
fillins = 2
solver = Normal
Thread vector: 23.2/9.6[3] 3.6/2.3[3] 1.4/1.4[1] 0.3/1.4[1]  2592/500
Matrix Compiler1: 3.62 KB object code size  1.0/0.5/[0.2]
Matrix Compiler2: 6.32 KB object code size  0.5/0.9/[0.4]

