Circuit: * C:\Users\vscheyer\Documents\Classes_4th_Semester\Circuits\olin-circuits-sp19\Final_Project_CMOS_Adder\Draft1.asc

Limiting rise time of source v2 to 0.002
Limiting fall time of source v2 to 0.002
Limiting rise time of source v1 to 0.002
Limiting fall time of source v1 to 0.002
Direct Newton iteration for .op point succeeded.
Ignoring empty pin current: Ix(u1:drain)
Ignoring empty pin current: Ix(u1:gate)
Ignoring empty pin current: Ix(u1:source)
Ignoring empty pin current: Ix(u2:drain)
Ignoring empty pin current: Ix(u2:gate)
Ignoring empty pin current: Ix(u2:source)
Ignoring empty pin current: Ix(u3:vdd)
Ignoring empty pin current: Ix(u4:drain)
Ignoring empty pin current: Ix(u4:gate)
Ignoring empty pin current: Ix(u4:source)
Ignoring empty pin current: Ix(u5:drain)
Ignoring empty pin current: Ix(u5:gate)
Ignoring empty pin current: Ix(u5:source)
Ignoring empty pin current: Ix(u6:drain)
Ignoring empty pin current: Ix(u6:gate)
Ignoring empty pin current: Ix(u6:source)
Ignoring empty pin current: Ix(u7:drain)
Ignoring empty pin current: Ix(u7:gate)
Ignoring empty pin current: Ix(u7:source)
Ignoring empty pin current: Ix(u8:gnd)
Ignoring empty pin current: Ix(u9:gnd)
Ignoring empty pin current: Ix(u10:vdd)
Ignoring empty pin current: Ix(x1:v1)
Ignoring empty pin current: Ix(x1:v2)
Ignoring empty pin current: Ix(x1:v3)
Ignoring empty pin current: Ix(u1:drain)
Ignoring empty pin current: Ix(u1:gate)
Ignoring empty pin current: Ix(u1:source)
Ignoring empty pin current: Ix(u2:drain)
Ignoring empty pin current: Ix(u2:gate)
Ignoring empty pin current: Ix(u2:source)
Ignoring empty pin current: Ix(u3:vdd)
Ignoring empty pin current: Ix(u4:drain)
Ignoring empty pin current: Ix(u4:gate)
Ignoring empty pin current: Ix(u4:source)
Ignoring empty pin current: Ix(u5:drain)
Ignoring empty pin current: Ix(u5:gate)
Ignoring empty pin current: Ix(u5:source)
Ignoring empty pin current: Ix(u6:drain)
Ignoring empty pin current: Ix(u6:gate)
Ignoring empty pin current: Ix(u6:source)
Ignoring empty pin current: Ix(u7:drain)
Ignoring empty pin current: Ix(u7:gate)
Ignoring empty pin current: Ix(u7:source)
Ignoring empty pin current: Ix(u8:gnd)
Ignoring empty pin current: Ix(u9:gnd)
Ignoring empty pin current: Ix(u10:vdd)
Ignoring empty pin current: Ix(x1:v1)
Ignoring empty pin current: Ix(x1:v2)
Ignoring empty pin current: Ix(x1:v3)

Date: Thu May 02 20:07:39 2019
Total elapsed time: 0.096 seconds.

tnom = 27
temp = 27
method = modified trap
totiter = 2516
traniter = 2507
tranpoints = 1136
accept = 1105
rejected = 31
matrix size = 21
fillins = 0
solver = Normal
Matrix Compiler1: 842 bytes object code size  0.3/0.1/[0.1]
Matrix Compiler2: 1.71 KB object code size  0.2/0.2/[0.1]

