Circuit: * C:\Users\vscheyer\Documents\Classes_4th_Semester\Circuits\olin-circuits-sp19\Final_Project_CMOS_Adder\or_custom.asc

WARNING: Node V1 is floating.
WARNING: Node V2 is floating.

Direct Newton iteration for .op point succeeded.

Date: Sat May 04 16:48:45 2019
Total elapsed time: 0.140 seconds.

tnom = 27
temp = 27
method = modified trap
totiter = 2091
traniter = 2082
tranpoints = 1042
accept = 1042
rejected = 0
matrix size = 15
fillins = 2
solver = Normal
Matrix Compiler1: 982 bytes object code size  0.2/0.2/[0.1]
Matrix Compiler2: 1.42 KB object code size  0.2/0.2/[0.2]

