Circuit: * C:\Users\vscheyer\Documents\Classes_4th_Semester\Circuits\olin-circuits-sp19\Final_Project_CMOS_Adder\orgate.asc

Limiting rise time of source v§b to 0.002
Limiting fall time of source v§b to 0.002
Limiting rise time of source v§a to 0.002
Limiting fall time of source v§a to 0.002
Direct Newton iteration for .op point succeeded.

Date: Thu May 02 19:47:03 2019
Total elapsed time: 0.077 seconds.

tnom = 27
temp = 27
method = modified trap
totiter = 2516
traniter = 2507
tranpoints = 1136
accept = 1105
rejected = 31
matrix size = 21
fillins = 0
solver = Normal
Matrix Compiler1: 752 bytes object code size  0.2/0.1/[0.1]
Matrix Compiler2: off  [0.1]/0.2/0.1

