Circuit: * C:\Users\afry\Documents\Semesters\Spring 2019\Circuits\olin-circuits-sp19\Final_Project_CMOS_Adder\XOR-pulse.asc

Limiting rise time of source v§bx to 0.002
Limiting fall time of source v§bx to 0.002
Limiting rise time of source v§ax to 0.002
Limiting fall time of source v§ax to 0.002
Direct Newton iteration for .op point succeeded.

Date: Sun May 05 16:46:06 2019
Total elapsed time: 0.085 seconds.

tnom = 27
temp = 27
method = modified trap
totiter = 2408
traniter = 2400
tranpoints = 1104
accept = 1085
rejected = 19
matrix size = 21
fillins = 0
solver = Normal
Matrix Compiler1: 698 bytes object code size  0.2/0.1/[0.1]
Matrix Compiler2: 1.61 KB object code size  0.1/0.2/[0.1]

