Circuit: * C:\Users\vscheyer\Documents\Classes_4th_Semester\Circuits\olin-circuits-sp19\Final_Project_CMOS_Adder\xorgate.asc

Limiting rise time of source v§bx to 0.002
Limiting fall time of source v§bx to 0.002
Limiting rise time of source v§ax to 0.002
Limiting fall time of source v§ax to 0.002
Direct Newton iteration for .op point succeeded.

Date: Wed May 08 19:00:58 2019
Total elapsed time: 0.228 seconds.

tnom = 27
temp = 27
method = modified trap
totiter = 2396
traniter = 2388
tranpoints = 1103
accept = 1084
rejected = 19
matrix size = 20
fillins = 0
solver = Normal
Matrix Compiler1: 594 bytes object code size  0.6/0.3/[0.2]
Matrix Compiler2: 1.55 KB object code size  0.4/0.7/[0.4]

